
**** 04/03/13 22:40:16 ******** PSpice Lite (June 2009) ******* ID# 10813 ****

 ** Profile: "SCHEMATIC1-HW04 MOSFET"  [ C:\Users\kpapa01\Desktop\NYU POLY\SEMESTERS\NYU SPRING 13\EE3114 Fundamentals of Electronics


 ****     CIRCUIT DESCRIPTION


******************************************************************************




** Creating circuit file "HW04 MOSFET.cir" 
** WARNING: THIS AUTOMATICALLY GENERATED FILE MAY BE OVERWRITTEN BY SUBSEQUENT SIMULATIONS

*Libraries: 
* Profile Libraries :
* Local Libraries :
* From [PSPICE NETLIST] section of C:\OrCAD\OrCAD_16.3_Demo\tools\PSpice\PSpice.ini file:
.lib "nomd.lib" 

*Analysis directives: 
.TRAN  0 25msec 0 0.001msec 
.PROBE V(alias(*)) I(alias(*)) W(alias(*)) D(alias(*)) NOISE(alias(*)) 
.INC "..\SCHEMATIC1.net" 



**** INCLUDING SCHEMATIC1.net ****
* source HW04 MOSFET
X_Q1         N00301 N00258 N00314 N00314 awbvn2222 PARAMS:                     
+                           
V_V1         N00182 N00401  
+SIN 0 10mV 1k 0 0 0
R_R4         N00182 N00246  2k TC=0,0 
R_R2         N00258 N00307  100k TC=0,0 
R_R3         N00401 N00258  150k TC=0,0 
R_R1         N00301 N00307  8k TC=0,0 
R_R5         N00401 N00357  100000k TC=0,0 
C_C1         N00258 N00246 1000u TC=0
C_C2         N00357 N00301 1000u TC=0
V_V2         N00307 N00401 5Vdc

**** RESUMING "HW04 MOSFET.cir" ****
.END

ERROR -- Node N00182 is floating
ERROR -- Node N00401 is floating
ERROR -- Node N00246 is floating
ERROR -- Node N00258 is floating
ERROR -- Node N00307 is floating
ERROR -- Node N00301 is floating
ERROR -- Node N00357 is floating
ERROR -- Node N00314 is floating