
**** 03/14/13 10:58:30 ******** PSpice Lite (June 2009) ******* ID# 10813 ****

 ** Profile: "SCHEMATIC1-VG Sweep"  [ C:\Users\kpapa01\Desktop\NYU POLY\SEMESTERS\NYU SPRING 13\EE3114 Fundamentals of Electronics I\


 ****     CIRCUIT DESCRIPTION


******************************************************************************




** Creating circuit file "VG Sweep.cir" 
** WARNING: THIS AUTOMATICALLY GENERATED FILE MAY BE OVERWRITTEN BY SUBSEQUENT SIMULATIONS

*Libraries: 
* Profile Libraries :
* Local Libraries :
* From [PSPICE NETLIST] section of C:\OrCAD\OrCAD_16.3_Demo\tools\PSpice\PSpice.ini file:
.lib "nomd.lib" 

*Analysis directives: 
.DC LIN V_V1 0 5 0.1 
+ V_VG LIST 0, 3.0, 3.5, 4.0, 4.5, 5.0 
.PROBE V(alias(*)) I(alias(*)) W(alias(*)) D(alias(*)) NOISE(alias(*)) 
.INC "..\SCHEMATIC1.net" 



**** INCLUDING SCHEMATIC1.net ****
* source HW03
X_Q1         N00118 N00111 0 0 awbvn2222 PARAMS:                               
+                 
V_VG         N00111 0 DC 3v  
V_V1         N00118 0 DC 5v  

**** RESUMING "VG Sweep.cir" ****
.END

**** 03/14/13 10:58:30 ******** PSpice Lite (June 2009) ******* ID# 10813 ****

 ** Profile: "SCHEMATIC1-VG Sweep"  [ C:\Users\kpapa01\Desktop\NYU POLY\SEMESTERS\NYU SPRING 13\EE3114 Fundamentals of Electronics I\


 ****     MOSFET MODEL PARAMETERS


******************************************************************************




               X_Q1.model14    
               NMOS            
       LEVEL    2            
           L  100.000000E-06 
           W  100.000000E-06 
         VTO    2.6          
          KP     .12         
       GAMMA    0            
         PHI     .7          
      LAMBDA    1.000000E-03 
          RS    1            
          IS   10.000000E-15 
          JS    0            
          PB    1            
        PBSW    1            
         CBD  100.000000E-12 
          CJ    0            
        CJSW    0            
        CGSO    5.500000E-06 
        CGDO  500.000000E-09 
        CGBO    0            
         TOX  100.000000E-09 
          XJ    0            
       UCRIT   10.000000E+03 
      DIOMOD    1            
         VFB    0            
        LETA    0            
        WETA    0            
          U0    0            
        TEMP    0            
         VDD    5            
       XPART    0            



          JOB CONCLUDED

**** 03/14/13 10:58:30 ******** PSpice Lite (June 2009) ******* ID# 10813 ****

 ** Profile: "SCHEMATIC1-VG Sweep"  [ C:\Users\kpapa01\Desktop\NYU POLY\SEMESTERS\NYU SPRING 13\EE3114 Fundamentals of Electronics I\


 ****     JOB STATISTICS SUMMARY


******************************************************************************



  Total job time (using Solver 1)   =         .03
