
**** 02/21/13 10:51:28 ******** PSpice Lite (June 2009) ******* ID# 10813 ****

 ** Profile: "SCHEMATIC1-V0 function of time"  [ C:\Users\kpapa01\Desktop\NYU POLY\SEMESTERS\NYU SPRING 13\EE3114 Fundamentals of Ele


 ****     CIRCUIT DESCRIPTION


******************************************************************************




** Creating circuit file "V0 function of time.cir" 
** WARNING: THIS AUTOMATICALLY GENERATED FILE MAY BE OVERWRITTEN BY SUBSEQUENT SIMULATIONS

*Libraries: 
* Profile Libraries :
* Local Libraries :
* From [PSPICE NETLIST] section of C:\OrCAD\OrCAD_16.3_Demo\tools\PSpice\PSpice.ini file:
.lib "nomd.lib" 

*Analysis directives: 
.TRAN  0 5m 0 1U 
.PROBE V(alias(*)) I(alias(*)) W(alias(*)) D(alias(*)) NOISE(alias(*)) 
.INC "..\SCHEMATIC1.net" 



**** INCLUDING SCHEMATIC1.net ****
* source EE3114 HW03 Q05
V_V5         N00667 0  AC <AC>
---------------------------$
ERROR -- Missing value
+SIN 0 50mV 1kHz 0 0 0
R_R1         N00667 N00378  200 TC=0,0 
C_C1         N00412 N00378 5000uF TC=0
I_I2         N00419 N00412 DC 10mA  
V_V6         N00419 0 5V
X_D1         N00412 0 awb1n4148 PARAMS:                

**** RESUMING "V0 function of time.cir" ****
.END
