
**** 02/21/13 10:00:42 ******** PSpice Lite (June 2009) ******* ID# 10813 ****

 ** Profile: "SCHEMATIC1-bias"  [ C:\Users\kpapa01\Desktop\NYU POLY\SEMESTERS\NYU SPRING 13\EE3114 Fundamentals of Electronics I\HW\e


 ****     CIRCUIT DESCRIPTION


******************************************************************************




** Creating circuit file "bias.cir" 
** WARNING: THIS AUTOMATICALLY GENERATED FILE MAY BE OVERWRITTEN BY SUBSEQUENT SIMULATIONS

*Libraries: 
* Profile Libraries :
* Local Libraries :
* From [PSPICE NETLIST] section of C:\OrCAD\OrCAD_16.3_Demo\tools\PSpice\PSpice.ini file:
.lib "nomd.lib" 

*Analysis directives: 
.PROBE V(alias(*)) I(alias(*)) W(alias(*)) D(alias(*)) NOISE(alias(*)) 
.INC "..\SCHEMATIC1.net" 



**** INCLUDING SCHEMATIC1.net ****
* source EE3114 HW02 Q5

**** RESUMING bias.cir ****
.END

WARNING -- There are no devices in this circuit